CPDS_validation_cosim/Original SImulation Results/TransmissionSim_orig.log
reading json
reading json okay!
TransmissionSim: Combination federate created
Working directory: "C:\Users\aaliq\OneDrive\Documents\CoSimulation\CPDS_validation_cosim2\CPDS_validation_cosim\Transmission"
Loaded generated Python code in "C:\Users\aaliq\.andes\pycode".
Parsing input file "C:\Users\aaliq\OneDrive\Documents\CoSimulation\CPDS_validation_cosim2\CPDS_validation_cosim\Transmission\..\Network_models\Transmission\ieee14_pvd1_1DistBus.xlsx"...
Input file parsed in 0.2523 seconds.
[31mSystem is not set up. Routines cannot continue.[0m
-> Single process finished in 0.5278 seconds.
PVD1 <1> added BusFreq <BusFreq_5> linked to bus <11>
System internal structure set up in 0.0339 seconds.
-> System connectivity check results:
  No islanded bus detected.
  A total of 1 island(s) detected.
  Each island has a slack bus correctly defined and enabled.

-> Power flow calculation
   Sparse solver: KLU
 Solution method: NR method
Power flow initialized in 0.0000 seconds.
0: |F(x)| = 0.0500512267
1: |F(x)| = 4.92102341e-05
2: |F(x)| = 2.875291116e-10
Converged in 3 iterations in 0.0054 seconds.
Initialization for dynamics completed in 0.0255 seconds.
Initialization was successful.
[33mTimeSeries does not contain any time stamp.[0m
TransmissionSim: Entering execution mode
===========Start simulation==================
total_num_DER=4
=============================
request_time=0.0
saving ss to object.
pvd1_qpower = [0.06572999 0.13145998 0.19718997 0.26291996] at time 0
C:\Users\aaliq\AppData\Local\Programs\Python\Python310\lib\site-packages\helics\capi.py:7501: UserWarning: This function will return a complex number in the next major release
  warnings.warn("This function will return a complex number in the next major release")
Received active power from Bus11 at time 0: -1e+49 kw
Received reactive power from Bus11 at time 0: 0.0 kvar
manually set up first step load bus P and Q
bus_name=11

-> Time Domain Simulation Summary:
Sparse Solver: KLU
Simulation time: 0.0-0.5 s.
Fixed step size: h=33.33 ms. Shrink if not converged.
  0%|                                                    | 0/100 [00:00<?, ?%/s] 17%|#######1                                  | 17/100 [00:00<00:00, 435.51%/s]
Simulation completed in 0.0390 seconds.
current_time=0
ACE_raw = 0.0021558608990645874
ACE_raw_integral = 0.0010779304495322937
bus_pvd1_power {'11': [0.00200000877300096, 0.00400001754600192, 0.006000026319002879, 0.00800003509200384]}
Sending to Aggregator_DER_Bus11 at time 0: ACE -0.00032337913485968814 100 MW.
Sent voltage at time 0: (0.9945371275728873 pu , -0.11500846402496999 rad)to Bus 11
Sent DER_power at time 0: [0.00200000877300096, 0.00400001754600192, 0.006000026319002879, 0.00800003509200384] MW to Bus 11
=============================
request_time=0.5
saving ss to object.
pvd1_qpower = [0.06573028 0.13146055 0.19719083 0.26292111] at time 0.5
Received active power from Bus11 at time 0.5: 3499.782456135105 kw
Received reactive power from Bus11 at time 0.5: 1593.113058531508 kvar
manually set up first step load bus P and Q
bus_name=11
Received PVD_AGC_response = ['Bus11', '0.0', '0.0', '0.0', '0.0'] from Aggregator_DER_Bus11 at time 0.5.
tmp1 =  0
tmp2 =  0
tmp3 =  4
PVD_AGC_response_np=[0. 0. 0. 0.]
  0%|                                                    | 0/100 [00:00<?, ?%/s] 67%|##########################1            | 67.0/100 [00:00<00:00, 1994.40%/s]
Simulation completed in 0.0335 seconds.
current_time=0.5
ACE_raw = 0.0035556019707432534
ACE_raw_integral = 0.0028557314349039204
bus_pvd1_power {'11': [0.0020000037697170702, 0.0040000075394341405, 0.00600001130915121, 0.008000015078868281]}
Sending to Aggregator_DER_Bus11 at time 0.5: ACE -0.0006411333405647174 100 MW.
=============================
request_time=1.0
saving ss to object.
pvd1_qpower = [0.06573011 0.13146023 0.19719034 0.26292045] at time 1.0
Received active power from Bus11 at time 1.0: 3499.782456135105 kw
Received reactive power from Bus11 at time 1.0: 1593.113058531508 kvar
bus_name=11
  0%|                                                    | 0/100 [00:00<?, ?%/s] 83%|################################3      | 83.0/100 [00:00<00:00, 2979.34%/s]
Simulation completed in 0.0278 seconds.
current_time=1.0
ACE_raw = -0.0002796330463401316
ACE_raw_integral = 0.0027159149117338545
bus_pvd1_power {'11': [0.0020162373929217946, 0.004032474785843589, 0.006048712178765346, 0.008064949571682594]}
Sending to Aggregator_DER_Bus11 at time 1.0: ACE -0.0002436281865393723 100 MW.
Sent voltage at time 1.0: (0.9942647530497329 pu , -0.10248001227697556 rad)to Bus 11
Sent DER_power at time 1.0: [0.0020162373929217946, 0.004032474785843589, 0.006048712178765346, 0.008064949571682594] MW to Bus 11
=============================
request_time=1.5
saving ss to object.
pvd1_qpower = [0.06572958 0.13145916 0.19718873 0.26291831] at time 1.5
Received active power from Bus11 at time 1.5: 3499.9213801051146 kw
Received reactive power from Bus11 at time 1.5: 1593.3134766953094 kvar
bus_name=11
  0%|                                                    | 0/100 [00:00<?, ?%/s] 91%|###################################4   | 91.0/100 [00:00<00:00, 2599.29%/s]
Simulation completed in 0.0350 seconds.
current_time=1.5
ACE_raw = -0.002572863680992708
ACE_raw_integral = 0.0014294830712375005
bus_pvd1_power {'11': [0.0021244387999924284, 0.004248877599984857, 0.0063733163999772835, 0.008497755199969714]}
Sending to Aggregator_DER_Bus11 at time 1.5: ACE 0.00011433806097552074 100 MW.
=============================
request_time=2.0
saving ss to object.
pvd1_qpower = [0.06572981 0.13145963 0.19718945 0.26291926] at time 2.0
Received active power from Bus11 at time 2.0: 3499.9213801051146 kw
Received reactive power from Bus11 at time 2.0: 1593.3134766953094 kvar
bus_name=11
  0%|                                                    | 0/100 [00:00<?, ?%/s] 97%|#####################################8 | 97.0/100 [00:00<00:00, 2225.98%/s]
Simulation completed in 0.0435 seconds.
current_time=2.0
ACE_raw = -0.0019827673801898174
ACE_raw_integral = 0.00043809938114259183
bus_pvd1_power {'11': [0.0020971552893884918, 0.0041943105787769835, 0.0062914658681654766, 0.008388621157553967]}
Sending to Aggregator_DER_Bus11 at time 2.0: ACE 0.00015446679990472256 100 MW.
Sent voltage at time 2.0: (0.9941919328613446 pu , -0.11539252495025543 rad)to Bus 11
Sent DER_power at time 2.0: [0.0020971552893884918, 0.0041943105787769835, 0.0062914658681654766, 0.008388621157553967] MW to Bus 11
=============================
request_time=2.5
saving ss to object.
pvd1_qpower = [0.06573007 0.13146014 0.1971902  0.26292027] at time 2.5
Received active power from Bus11 at time 2.5: 3502.07062999157 kw
Received reactive power from Bus11 at time 2.5: 1591.3357517075917 kvar
bus_name=11
  0%|                                                    | 0/100 [00:00<?, ?%/s]100%|######################################| 100.0/100 [00:00<00:00, 4812.08%/s]
Simulation completed in 0.0207 seconds.
current_time=2.5
ACE_raw = -0.001376660399930213
ACE_raw_integral = -0.0002502308188225146
bus_pvd1_power {'11': [0.002067328052900816, 0.004134656105801632, 0.006201984158702448, 0.008269312211603264]}
Sending to Aggregator_DER_Bus11 at time 2.5: ACE 0.00016268912187527275 100 MW.
=============================
request_time=3.0
saving ss to object.
pvd1_qpower = [0.06573012 0.13146025 0.19719037 0.2629205 ] at time 3.0
Received active power from Bus11 at time 3.0: 3502.07062999157 kw
Received reactive power from Bus11 at time 3.0: 1591.3357517075917 kvar
bus_name=11
  0%|                                                    | 0/100 [00:00<?, ?%/s]100%|######################################| 100.0/100 [00:00<00:00, 2551.53%/s]
Simulation completed in 0.0391 seconds.
current_time=3.0
ACE_raw = 0.002447240272497422
ACE_raw_integral = 0.0009733893174261964
bus_pvd1_power {'11': [0.0020000192713024952, 0.0040000385426049905, 0.006000057813907485, 0.008000077085209981]}
Sending to Aggregator_DER_Bus11 at time 3.0: ACE -0.00034206295899236183 100 MW.
Sent voltage at time 3.0: (0.9945879467597465 pu , -0.11600440161088377 rad)to Bus 11
Sent DER_power at time 3.0: [0.0020000192713024952, 0.0040000385426049905, 0.006000057813907485, 0.008000077085209981] MW to Bus 11
=============================
request_time=3.5
saving ss to object.
pvd1_qpower = [0.06573062 0.13146124 0.19719187 0.26292249] at time 3.5
Received active power from Bus11 at time 3.5: 3501.543340571978 kw
Received reactive power from Bus11 at time 3.5: 1590.33661602361 kvar
bus_name=11
  0%|                                                    | 0/100 [00:00<?, ?%/s]100%|######################################| 100.0/100 [00:00<00:00, 4648.10%/s]
Simulation completed in 0.0215 seconds.
current_time=3.5
ACE_raw = 0.0048196977366328966
ACE_raw_integral = 0.0033832381857426446
bus_pvd1_power {'11': [0.002000008221948152, 0.004000016443896304, 0.0060000246658444565, 0.008000032887792607]}
Sending to Aggregator_DER_Bus11 at time 3.5: ACE -0.0008202935922375542 100 MW.
=============================
request_time=4.0
saving ss to object.
pvd1_qpower = [0.06573026 0.13146052 0.19719078 0.26292104] at time 4.0
Received active power from Bus11 at time 4.0: 3501.543340571978 kw
Received reactive power from Bus11 at time 4.0: 1590.33661602361 kvar
bus_name=11
  0%|                                                    | 0/100 [00:00<?, ?%/s]100%|######################################| 100.0/100 [00:00<00:00, 2984.74%/s]
Simulation completed in 0.0335 seconds.
current_time=4.0
ACE_raw = 0.003823984102695253
ACE_raw_integral = 0.005295230237090271
bus_pvd1_power {'11': [0.00199999053811756, 0.00399998107623512, 0.0059999716143526805, 0.00799996215247024]}
Sending to Aggregator_DER_Bus11 at time 4.0: ACE -0.0009119214339785524 100 MW.
Sent voltage at time 4.0: (0.9946445218623418 pu , -0.08941394643741385 rad)to Bus 11
Sent DER_power at time 4.0: [0.00199999053811756, 0.00399998107623512, 0.0059999716143526805, 0.00799996215247024] MW to Bus 11
=============================
request_time=4.5
saving ss to object.
pvd1_qpower = [0.06572968 0.13145936 0.19718903 0.26291871] at time 4.5
Received active power from Bus11 at time 4.5: 3500.4642125457895 kw
Received reactive power from Bus11 at time 4.5: 1584.8084011814108 kvar
bus_name=11
Received PVD_AGC_response = ['Bus11', '-8.202935922375543e-06', '-1.6405871844751087e-05', '-2.4608807767126623e-05', '-3.2811743689502174e-05'] from Aggregator_DER_Bus11 at time 4.5.
tmp1 =  0
tmp2 =  0
tmp3 =  4
PVD_AGC_response_np=[-8.20293592e-06 -1.64058718e-05 -2.46088078e-05 -3.28117437e-05]
  0%|                                                    | 0/100 [00:00<?, ?%/s]100%|######################################| 100.0/100 [00:00<00:00, 4208.87%/s]
Simulation completed in 0.0237 seconds.
current_time=4.5
ACE_raw = 0.0025789968942683144
ACE_raw_integral = 0.006584728684224428
bus_pvd1_power {'11': [0.001991786699665534, 0.003983573399331068, 0.005975360098996603, 0.007967146623395226]}
Sending to Aggregator_DER_Bus11 at time 4.5: ACE -0.0009163725578492743 100 MW.
=============================
request_time=5.0
saving ss to object.
pvd1_qpower = [0.06572964 0.13145929 0.19718893 0.26291858] at time 5.0
Received active power from Bus11 at time 5.0: 3500.4642125457895 kw
Received reactive power from Bus11 at time 5.0: 1584.8084011814108 kvar
bus_name=11
  0%|                                                    | 0/100 [00:00<?, ?%/s]100%|######################################| 100.0/100 [00:00<00:00, 1927.42%/s]
Simulation completed in 0.0518 seconds.
current_time=5.0
ACE_raw = -0.0027081961051500336
ACE_raw_integral = 0.005230630631649411
bus_pvd1_power {'11': [0.002122559618556303, 0.004245119237112606, 0.00636767885566891, 0.008490238474225212]}
Sending to Aggregator_DER_Bus11 at time 5.0: ACE -0.00025224345264993775 100 MW.
Sent voltage at time 5.0: (0.994066481873937 pu , -0.0837986151739074 rad)to Bus 11
Sent DER_power at time 5.0: [0.002122559618556303, 0.004245119237112606, 0.00636767885566891, 0.008490238474225212] MW to Bus 11
=============================
request_time=5.5
saving ss to object.
pvd1_qpower = [0.06572957 0.13145914 0.19718871 0.26291827] at time 5.5
Received active power from Bus11 at time 5.5: 3501.9975021271284 kw
Received reactive power from Bus11 at time 5.5: 1591.1081342239752 kvar
bus_name=11
  0%|                                                    | 0/100 [00:00<?, ?%/s]100%|######################################| 100.0/100 [00:00<00:00, 2212.82%/s]
Simulation completed in 0.0451 seconds.
current_time=5.5
ACE_raw = -0.005246061767064781
ACE_raw_integral = 0.00260759974811702
bus_pvd1_power {'11': [0.0022461590725686062, 0.0044923181451372125, 0.006738477217705818, 0.008984636290274425]}
Sending to Aggregator_DER_Bus11 at time 5.5: ACE 0.00026384620189477616 100 MW.
=============================
request_time=6.0
saving ss to object.
pvd1_qpower = [0.06572989 0.13145979 0.19718968 0.26291958] at time 6.0
Received active power from Bus11 at time 6.0: 3501.9975021271284 kw
Received reactive power from Bus11 at time 6.0: 1591.1081342239752 kvar
bus_name=11
  0%|                                                    | 0/100 [00:00<?, ?%/s]100%|######################################| 100.0/100 [00:00<00:00, 1932.67%/s]
Simulation completed in 0.0517 seconds.
current_time=6.0
ACE_raw = 0.001685024354644194
ACE_raw_integral = 0.0034501119254391173
bus_pvd1_power {'11': [0.0019918332954490495, 0.003983666778312293, 0.005975500167468441, 0.007967333556624587]}
Sending to Aggregator_DER_Bus11 at time 6.0: ACE -0.0005135136280083312 100 MW.
Sent voltage at time 6.0: (0.9944605545759299 pu , -0.09899861383224857 rad)to Bus 11
Sent DER_power at time 6.0: [0.0019918332954490495, 0.003983666778312293, 0.005975500167468441, 0.007967333556624587] MW to Bus 11
=============================
request_time=6.5
saving ss to object.
pvd1_qpower = [0.06573118 0.13146237 0.19719355 0.26292473] at time 6.5
Received active power from Bus11 at time 6.5: 3502.2770068071277 kw
Received reactive power from Bus11 at time 6.5: 1591.294135247879 kvar
bus_name=11
  0%|                                                    | 0/100 [00:00<?, ?%/s]100%|######################################| 100.0/100 [00:00<00:00, 2795.77%/s]
Simulation completed in 0.0357 seconds.
current_time=6.5
ACE_raw = 0.006284384061642923
ACE_raw_integral = 0.006592303956260578
bus_pvd1_power {'11': [0.0019918177012102673, 0.003983635587238079, 0.005975453380857119, 0.007967271174476157]}
Sending to Aggregator_DER_Bus11 at time 6.5: ACE -0.0012876688017903503 100 MW.
=============================
request_time=7.0
saving ss to object.
pvd1_qpower = [0.06573067 0.13146135 0.19719202 0.2629227 ] at time 7.0
Received active power from Bus11 at time 7.0: 3502.2770068071277 kw
Received reactive power from Bus11 at time 7.0: 1591.294135247879 kvar
bus_name=11
  0%|                                                    | 0/100 [00:00<?, ?%/s]100%|######################################| 100.0/100 [00:00<00:00, 2903.60%/s]
Simulation completed in 0.0344 seconds.
current_time=7.0
ACE_raw = 0.004202929522886762
ACE_raw_integral = 0.00869376871770396
bus_pvd1_power {'11': [0.0019917836685751544, 0.003983567337150309, 0.005975350825477211, 0.007967134428149003]}
Sending to Aggregator_DER_Bus11 at time 7.0: ACE -0.0012896698240590723 100 MW.
Sent voltage at time 7.0: (0.994656606253106 pu , -0.0679456883028373 rad)to Bus 11
Sent DER_power at time 7.0: [0.0019917836685751544, 0.003983567337150309, 0.005975350825477211, 0.007967134428149003] MW to Bus 11
=============================
request_time=7.5
saving ss to object.
pvd1_qpower = [0.06572954 0.13145909 0.19718863 0.26291818] at time 7.5
Received active power from Bus11 at time 7.5: 3500.0616758278843 kw
Received reactive power from Bus11 at time 7.5: 1583.1751836869666 kvar
bus_name=11
  0%|                                                    | 0/100 [00:00<?, ?%/s]100%|######################################| 100.0/100 [00:00<00:00, 2704.54%/s]
Simulation completed in 0.0369 seconds.
current_time=7.5
ACE_raw = 0.002188858432008297
ACE_raw_integral = 0.009788197933708108
bus_pvd1_power {'11': [0.0019917836646547705, 0.003983567329309541, 0.00597535082243123, 0.007967134429908304]}
Sending to Aggregator_DER_Bus11 at time 7.5: ACE -0.0011977056365716405 100 MW.
=============================
request_time=8.0
saving ss to object.
pvd1_qpower = [0.06572954 0.13145909 0.19718863 0.26291817] at time 8.0
Received active power from Bus11 at time 8.0: 3500.0616758278843 kw
Received reactive power from Bus11 at time 8.0: 1583.1751836869666 kvar
bus_name=11
  0%|                                                    | 0/100 [00:00<?, ?%/s]100%|######################################| 100.0/100 [00:00<00:00, 1888.84%/s]
Simulation completed in 0.0529 seconds.
current_time=8.0
ACE_raw = -0.0023526831350991783
ACE_raw_integral = 0.008611856366158518
bus_pvd1_power {'11': [0.0021055061113439714, 0.004211012222687943, 0.006316518334031913, 0.008422024445375886]}
Sending to Aggregator_DER_Bus11 at time 8.0: ACE -0.000625917323105934 100 MW.
Sent voltage at time 8.0: (0.9940845096928883 pu , -0.06225419649472528 rad)to Bus 11
Sent DER_power at time 8.0: [0.0021055061113439714, 0.004211012222687943, 0.006316518334031913, 0.008422024445375886] MW to Bus 11
=============================
request_time=8.5
saving ss to object.
pvd1_qpower = [0.06572961 0.13145922 0.19718883 0.26291843] at time 8.5
Received active power from Bus11 at time 8.5: 3501.8353647846084 kw
Received reactive power from Bus11 at time 8.5: 1591.6656336819026 kvar
bus_name=11
Received PVD_AGC_response = ['Bus11', '-1.1977056365716408e-05', '-2.3954112731432816e-05', '-3.593116909714921e-05', '-4.790822546286563e-05'] from Aggregator_DER_Bus11 at time 8.5.
tmp1 =  0
tmp2 =  0
tmp3 =  4
PVD_AGC_response_np=[-1.19770564e-05 -2.39541127e-05 -3.59311691e-05 -4.79082255e-05]
  0%|                                                    | 0/100 [00:00<?, ?%/s]100%|######################################| 100.0/100 [00:00<00:00, 1662.24%/s]
Simulation completed in 0.0601 seconds.
current_time=8.5
ACE_raw = -0.0043975836991234805
ACE_raw_integral = 0.006413064516596777
bus_pvd1_power {'11': [0.0022012840130301646, 0.004402568026060329, 0.006603852039090493, 0.008805136052120658]}
Sending to Aggregator_DER_Bus11 at time 8.5: ACE -0.00020154808174732968 100 MW.
=============================
request_time=9.0
saving ss to object.
pvd1_qpower = [0.06572992 0.13145984 0.19718977 0.2629197 ] at time 9.0
Received active power from Bus11 at time 9.0: 3501.8353647846084 kw
Received reactive power from Bus11 at time 9.0: 1591.6656336819026 kvar
bus_name=11
  0%|                                                    | 0/100 [00:00<?, ?%/s]100%|######################################| 100.0/100 [00:00<00:00, 1812.77%/s]
Simulation completed in 0.0562 seconds.
current_time=9.0
ACE_raw = -0.000903489749606519
ACE_raw_integral = 0.005961319641793517
bus_pvd1_power {'11': [0.0020324859183788874, 0.004064971836757775, 0.006097457755136661, 0.00812994367351555]}
Sending to Aggregator_DER_Bus11 at time 9.0: ACE -0.0005057829892186999 100 MW.
Sent voltage at time 9.0: (0.994234099907132 pu , -0.08068846090238312 rad)to Bus 11
Sent DER_power at time 9.0: [0.0020324859183788874, 0.004064971836757775, 0.006097457755136661, 0.00812994367351555] MW to Bus 11
=============================
request_time=9.5
saving ss to object.
pvd1_qpower = [0.06573038 0.13146076 0.19719113 0.26292151] at time 9.5
Received active power from Bus11 at time 9.5: 3502.46222991372 kw
Received reactive power from Bus11 at time 9.5: 1591.956166674825 kvar
bus_name=11
  0%|                                                    | 0/100 [00:00<?, ?%/s]100%|######################################| 100.0/100 [00:00<00:00, 3495.02%/s]
Simulation completed in 0.0404 seconds.
current_time=9.5
ACE_raw = 0.0013235344171928308
ACE_raw_integral = 0.006623086850389932
bus_pvd1_power {'11': [0.0019880360274205935, 0.003976072234746784, 0.005964108352120177, 0.007952144469493569]}
Sending to Aggregator_DER_Bus11 at time 9.5: ACE -0.0007946621267582764 100 MW.
=============================
request_time=10.0
saving ss to object.
pvd1_qpower = [0.06573043 0.13146085 0.19719128 0.2629217 ] at time 10.0
Received active power from Bus11 at time 10.0: 3502.46222991372 kw
Received reactive power from Bus11 at time 10.0: 1591.956166674825 kvar
bus_name=11
  0%|                                                    | 0/100 [00:00<?, ?%/s]100%|######################################| 100.0/100 [00:00<00:00, 3059.37%/s]
Simulation completed in 0.0326 seconds.
current_time=10.0
ACE_raw = 0.0020203916799185788
ACE_raw_integral = 0.007633282690349222
bus_pvd1_power {'11': [0.0019880265361597016, 0.003976053072319403, 0.005964079608479109, 0.007952106144684853]}
Sending to Aggregator_DER_Bus11 at time 10.0: ACE -0.0009653674370267802 100 MW.
Sent voltage at time 10.0: (0.9945239645469823 pu , -0.07287429073955771 rad)to Bus 11
Sent DER_power at time 10.0: [0.0019880265361597016, 0.003976053072319403, 0.005964079608479109, 0.007952106144684853] MW to Bus 11
=============================
request_time=10.5
saving ss to object.
pvd1_qpower = [0.06573011 0.13146022 0.19719033 0.26292044] at time 10.5
Received active power from Bus11 at time 10.5: 3500.2749352730384 kw
Received reactive power from Bus11 at time 10.5: 1584.30984753101 kvar
bus_name=11
  0%|                                                    | 0/100 [00:00<?, ?%/s]100%|######################################| 100.0/100 [00:00<00:00, 2776.18%/s]
Simulation completed in 0.0360 seconds.
current_time=10.5
ACE_raw = 0.0022118506042799356
ACE_raw_integral = 0.00873920799248919
bus_pvd1_power {'11': [0.0019880218446678656, 0.003976043689335731, 0.005964065534003597, 0.007952087378671145]}
Sending to Aggregator_DER_Bus11 at time 10.5: ACE -0.0010951058596769126 100 MW.
=============================
request_time=11.0
saving ss to object.
pvd1_qpower = [0.06572995 0.1314599  0.19718986 0.26291981] at time 11.0
Received active power from Bus11 at time 11.0: 3500.2749352730384 kw
Received reactive power from Bus11 at time 11.0: 1584.30984753101 kvar
bus_name=11
  0%|                                                    | 0/100 [00:00<?, ?%/s]100%|######################################| 100.0/100 [00:00<00:00, 3903.60%/s]
Simulation completed in 0.0256 seconds.
current_time=11.0
ACE_raw = 0.0009327673157386793
ACE_raw_integral = 0.00920559165035853
bus_pvd1_power {'11': [0.0019880147409519254, 0.003976029481903851, 0.005964044048686218, 0.007952058731524495]}
Sending to Aggregator_DER_Bus11 at time 11.0: ACE -0.001013835896609721 100 MW.
Sent voltage at time 11.0: (0.9943919960547176 pu , -0.06163071307972419 rad)to Bus 11
Sent DER_power at time 11.0: [0.0019880147409519254, 0.003976029481903851, 0.005964044048686218, 0.007952058731524495] MW to Bus 11
=============================
request_time=11.5
saving ss to object.
pvd1_qpower = [0.06572971 0.13145943 0.19718914 0.26291886] at time 11.5
Received active power from Bus11 at time 11.5: 3501.0907089299917 kw
Received reactive power from Bus11 at time 11.5: 1588.9881714778946 kvar
bus_name=11
  0%|                                                    | 0/100 [00:00<?, ?%/s]100%|######################################| 100.0/100 [00:00<00:00, 2958.84%/s]
Simulation completed in 0.0371 seconds.
current_time=11.5
ACE_raw = 1.3856612753917125e-05
ACE_raw_integral = 0.009212519956735488
bus_pvd1_power {'11': [0.0019887077157276552, 0.0039774154314553105, 0.005966123147182967, 0.007954830862863827]}
Sending to Aggregator_DER_Bus11 at time 11.5: ACE -0.0009226376569489406 100 MW.
=============================
request_time=12.0
saving ss to object.
pvd1_qpower = [0.06572983 0.13145967 0.1971895  0.26291933] at time 12.0
Received active power from Bus11 at time 12.0: 3501.0907089299917 kw
Received reactive power from Bus11 at time 12.0: 1588.9881714778946 kvar
bus_name=11
  0%|                                                    | 0/100 [00:00<?, ?%/s]100%|######################################| 100.0/100 [00:00<00:00, 2377.52%/s]
Simulation completed in 0.0420 seconds.
current_time=12.0
ACE_raw = -0.003251425301212033
ACE_raw_integral = 0.007586807306129472
bus_pvd1_power {'11': [0.0021454745518759612, 0.0042909491037519225, 0.006436423655627883, 0.008581898207503845]}
Sending to Aggregator_DER_Bus11 at time 12.0: ACE -0.0004335382004917439 100 MW.
Sent voltage at time 12.0: (0.9941002732283516 pu , -0.0683253782251529 rad)to Bus 11
Sent DER_power at time 12.0: [0.0021454745518759612, 0.0042909491037519225, 0.006436423655627883, 0.008581898207503845] MW to Bus 11
=============================
request_time=12.5
saving ss to object.
pvd1_qpower = [0.06572977 0.13145957 0.19718936 0.26291915] at time 12.5
Received active power from Bus11 at time 12.5: 3502.2021026136063 kw
Received reactive power from Bus11 at time 12.5: 1592.1748846823123 kvar
bus_name=11
Received PVD_AGC_response = ['Bus11', '-9.226376569489408e-06', '-1.8452753138978817e-05', '-2.7679129708468217e-05', '-3.690550627795763e-05'] from Aggregator_DER_Bus11 at time 12.5.
tmp1 =  0
tmp2 =  0
tmp3 =  4
PVD_AGC_response_np=[-9.22637657e-06 -1.84527531e-05 -2.76791297e-05 -3.69055063e-05]
  0%|                                                    | 0/100 [00:00<?, ?%/s]100%|######################################| 100.0/100 [00:00<00:00, 2553.33%/s]
Simulation completed in 0.0391 seconds.
current_time=12.5
ACE_raw = -0.00465494801100128
ACE_raw_integral = 0.005259333300628832
bus_pvd1_power {'11': [0.002216208005239163, 0.004432416010478326, 0.006648624015717489, 0.008864832020956653]}
Sending to Aggregator_DER_Bus11 at time 12.5: ACE -6.043852896275533e-05 100 MW.
=============================
request_time=13.0
saving ss to object.
pvd1_qpower = [0.06573 0.13146 0.19719 0.26292] at time 13.0
Received active power from Bus11 at time 13.0: 3502.2021026136063 kw
Received reactive power from Bus11 at time 13.0: 1592.1748846823123 kvar
bus_name=11
  0%|                                                    | 0/100 [00:00<?, ?%/s]100%|######################################| 100.0/100 [00:00<00:00, 1900.32%/s]
Simulation completed in 0.0526 seconds.
current_time=13.0
ACE_raw = -0.0009837338205852717
ACE_raw_integral = 0.004767466390336196
bus_pvd1_power {'11': [0.00203914170114188, 0.00407828340228376, 0.006117425103425641, 0.00815656680456752]}
Sending to Aggregator_DER_Bus11 at time 13.0: ACE -0.00037837325697509245 100 MW.
Sent voltage at time 13.0: (0.994316203503803 pu , -0.08864305820555902 rad)to Bus 11
Sent DER_power at time 13.0: [0.00203914170114188, 0.00407828340228376, 0.006117425103425641, 0.00815656680456752] MW to Bus 11
=============================
request_time=13.5
saving ss to object.
pvd1_qpower = [0.06573037 0.13146074 0.19719112 0.26292149] at time 13.5
Received active power from Bus11 at time 13.5: 3502.05192046901 kw
Received reactive power from Bus11 at time 13.5: 1592.2693672734335 kvar
bus_name=11
  0%|                                                    | 0/100 [00:00<?, ?%/s]100%|######################################| 100.0/100 [00:00<00:00, 2555.94%/s]
Simulation completed in 0.0391 seconds.
current_time=13.5
ACE_raw = 0.0012219683198117428
ACE_raw_integral = 0.005378450550242068
bus_pvd1_power {'11': [0.0019907852134759966, 0.003981570426952366, 0.005972355823913487, 0.007963141098551316]}
Sending to Aggregator_DER_Bus11 at time 13.5: ACE -0.000660041887005381 100 MW.
=============================
request_time=14.0
saving ss to object.
pvd1_qpower = [0.06573037 0.13146075 0.19719112 0.2629215 ] at time 14.0
Received active power from Bus11 at time 14.0: 3502.05192046901 kw
Received reactive power from Bus11 at time 14.0: 1592.2693672734335 kvar
bus_name=11
  0%|                                                    | 0/100 [00:00<?, ?%/s]100%|######################################| 100.0/100 [00:00<00:00, 3333.26%/s]
Simulation completed in 0.0290 seconds.
current_time=14.0
ACE_raw = 0.0018106942663302231
ACE_raw_integral = 0.00628379768340718
bus_pvd1_power {'11': [0.001990775301167363, 0.003981550602334726, 0.005972325903502089, 0.007963101204669452]}
Sending to Aggregator_DER_Bus11 at time 14.0: ACE -0.0008094491949737403 100 MW.
Sent voltage at time 14.0: (0.9945648800262905 pu , -0.08166773903118624 rad)to Bus 11
Sent DER_power at time 14.0: [0.001990775301167363, 0.003981550602334726, 0.005972325903502089, 0.007963101204669452] MW to Bus 11
=============================
request_time=14.5
saving ss to object.
pvd1_qpower = [0.06573004 0.13146009 0.19719013 0.26292018] at time 14.5
Received active power from Bus11 at time 14.5: 3499.889253033381 kw
Received reactive power from Bus11 at time 14.5: 1581.7278672413486 kvar
bus_name=11
  0%|                                                    | 0/100 [00:00<?, ?%/s]100%|######################################| 100.0/100 [00:00<00:00, 2527.34%/s]
Simulation completed in 0.0395 seconds.
current_time=14.5
ACE_raw = 0.0018900032403295494
ACE_raw_integral = 0.007228799303571954
bus_pvd1_power {'11': [0.0019907709029988343, 0.003981541805997669, 0.0059723127089965035, 0.007963083611995337]}
Sending to Aggregator_DER_Bus11 at time 14.5: ACE -0.0009118802543901503 100 MW.
=============================
request_time=15.0
saving ss to object.
pvd1_qpower = [0.0657299  0.1314598  0.19718969 0.26291959] at time 15.0
Received active power from Bus11 at time 15.0: 3499.889253033381 kw
Received reactive power from Bus11 at time 15.0: 1581.7278672413486 kvar
bus_name=11
  0%|                                                    | 0/100 [00:00<?, ?%/s]100%|######################################| 100.0/100 [00:00<00:00, 3339.36%/s]
Simulation completed in 0.0299 seconds.
current_time=15.0
ACE_raw = 0.0017234404309529265
ACE_raw_integral = 0.008090519519048418
bus_pvd1_power {'11': [0.0019907693533012445, 0.003981538706602489, 0.005972308059903734, 0.007963077413204978]}
Sending to Aggregator_DER_Bus11 at time 15.0: ACE -0.0009813959950001345 100 MW.
Sent voltage at time 15.0: (0.9944992029836668 pu , -0.06968726183882372 rad)to Bus 11
Sent DER_power at time 15.0: [0.0019907693533012445, 0.003981538706602489, 0.005972308059903734, 0.007963077413204978] MW to Bus 11
=============================
request_time=15.5
saving ss to object.
pvd1_qpower = [0.06572985 0.13145969 0.19718954 0.26291939] at time 15.5
Received active power from Bus11 at time 15.5: 3501.041114022537 kw
Received reactive power from Bus11 at time 15.5: 1588.3699284964227 kvar
bus_name=11
  0%|                                                    | 0/100 [00:00<?, ?%/s]100%|######################################| 100.0/100 [00:00<00:00, 2853.75%/s]
Simulation completed in 0.0350 seconds.
current_time=15.5
ACE_raw = 0.0014819816190359818
ACE_raw_integral = 0.00883151032856641
bus_pvd1_power {'11': [0.001990769649663729, 0.003981539299327458, 0.005972308948991187, 0.007963078598654916]}
Sending to Aggregator_DER_Bus11 at time 15.5: ACE -0.0010313491947602392 100 MW.
=============================
request_time=16.0
saving ss to object.
pvd1_qpower = [0.06572986 0.13145971 0.19718957 0.26291943] at time 16.0
Received active power from Bus11 at time 16.0: 3501.041114022537 kw
Received reactive power from Bus11 at time 16.0: 1588.3699284964227 kvar
bus_name=11
  0%|                                                    | 0/100 [00:00<?, ?%/s]100%|######################################| 100.0/100 [00:00<00:00, 2014.68%/s]
Simulation completed in 0.0496 seconds.
current_time=16.0
ACE_raw = -0.00375641493979662
ACE_raw_integral = 0.006953302858668099
bus_pvd1_power {'11': [0.002172409042631435, 0.00434481808526287, 0.006517227127894307, 0.00868963617052574]}
Sending to Aggregator_DER_Bus11 at time 16.0: ACE -0.0003196887918871479 100 MW.
Sent voltage at time 16.0: (0.994064268489968 pu , -0.07228176689241528 rad)to Bus 11
Sent DER_power at time 16.0: [0.002172409042631435, 0.00434481808526287, 0.006517227127894307, 0.00868963617052574] MW to Bus 11
=============================
request_time=16.5
saving ss to object.
pvd1_qpower = [0.06572961 0.13145923 0.19718884 0.26291846] at time 16.5
Received active power from Bus11 at time 16.5: 3502.1823581078743 kw
Received reactive power from Bus11 at time 16.5: 1591.9021920269327 kvar
bus_name=11
Received PVD_AGC_response = ['Bus11', '-1.0313491947602393e-05', '-2.0626983895204786e-05', '-3.094047584280717e-05', '-4.125396779040957e-05'] from Aggregator_DER_Bus11 at time 16.5.
tmp1 =  0
tmp2 =  0
tmp3 =  4
PVD_AGC_response_np=[-1.03134919e-05 -2.06269839e-05 -3.09404758e-05 -4.12539678e-05]
  0%|                                                    | 0/100 [00:00<?, ?%/s]100%|######################################| 100.0/100 [00:00<00:00, 2049.79%/s]
Simulation completed in 0.0487 seconds.
current_time=16.5
ACE_raw = -0.006283595312133273
ACE_raw_integral = 0.0038115052026014627
bus_pvd1_power {'11': [0.002294383678890377, 0.004588767357780754, 0.006883151036671132, 0.009177534715561509]}
Sending to Aggregator_DER_Bus11 at time 16.5: ACE 0.00024720901095318104 100 MW.
=============================
request_time=17.0
saving ss to object.
pvd1_qpower = [0.0657299  0.13145982 0.19718972 0.26291963] at time 17.0
Received active power from Bus11 at time 17.0: 3502.1823581078743 kw
Received reactive power from Bus11 at time 17.0: 1591.9021920269327 kvar
bus_name=11
  0%|                                                    | 0/100 [00:00<?, ?%/s]100%|######################################| 100.0/100 [00:00<00:00, 2838.65%/s]
Simulation completed in 0.0352 seconds.
current_time=17.0
ACE_raw = -0.00675796362773689
ACE_raw_integral = 0.00043252338873301776
bus_pvd1_power {'11': [0.002317901842081548, 0.004635803684163096, 0.006953705526244644, 0.009271607368326192]}
Sending to Aggregator_DER_Bus11 at time 17.0: ACE 0.0006325440239003873 100 MW.
Sent voltage at time 17.0: (0.9939776556140105 pu , -0.1119054929708873 rad)to Bus 11
Sent DER_power at time 17.0: [0.002317901842081548, 0.004635803684163096, 0.006953705526244644, 0.009271607368326192] MW to Bus 11
=============================
request_time=17.5
saving ss to object.
pvd1_qpower = [0.06573015 0.13146031 0.19719046 0.26292061] at time 17.5
Received active power from Bus11 at time 17.5: 3502.144166473005 kw
Received reactive power from Bus11 at time 17.5: 1591.9917733582522 kvar
bus_name=11
  0%|                                                    | 0/100 [00:00<?, ?%/s]100%|######################################| 100.0/100 [00:00<00:00, 4543.91%/s]
Simulation completed in 0.0220 seconds.
current_time=17.5
ACE_raw = -0.006481263721097081
ACE_raw_integral = -0.0028081084718155225
bus_pvd1_power {'11': [0.0023047087131270864, 0.004609417426254173, 0.00691412613938126, 0.009218834852508346]}
Sending to Aggregator_DER_Bus11 at time 17.5: ACE 0.0009289372192912604 100 MW.
=============================
request_time=18.0
saving ss to object.
pvd1_qpower = [0.06573025 0.1314605  0.19719075 0.262921  ] at time 18.0
Received active power from Bus11 at time 18.0: 3502.144166473005 kw
Received reactive power from Bus11 at time 18.0: 1591.9917733582522 kvar
bus_name=11
  0%|                                                    | 0/100 [00:00<?, ?%/s]100%|######################################| 100.0/100 [00:00<00:00, 1733.21%/s]
Simulation completed in 0.0576 seconds.
current_time=18.0
ACE_raw = -0.0038943100376546583
ACE_raw_integral = -0.004755263490642852
bus_pvd1_power {'11': [0.0021790700024864494, 0.004358140004972899, 0.006537210007459347, 0.008716280009945798]}
Sending to Aggregator_DER_Bus11 at time 18.0: ACE 0.0008649573528297511 100 MW.
Sent voltage at time 18.0: (0.9943074592283776 pu , -0.14855921315039577 rad)to Bus 11
Sent DER_power at time 18.0: [0.0021790700024864494, 0.004358140004972899, 0.006537210007459347, 0.008716280009945798] MW to Bus 11
=============================
request_time=18.5
saving ss to object.
pvd1_qpower = [0.06573039 0.13146075 0.19719112 0.2629215 ] at time 18.5
Received active power from Bus11 at time 18.5: 3499.561059511355 kw
Received reactive power from Bus11 at time 18.5: 1579.9787697296156 kvar
bus_name=11
  0%|                                                    | 0/100 [00:00<?, ?%/s]100%|######################################| 100.0/100 [00:00<00:00, 1873.16%/s]
Simulation completed in 0.0533 seconds.
current_time=18.5
ACE_raw = -0.0024598078474596624
ACE_raw_integral = -0.005985167414372683
bus_pvd1_power {'11': [0.002109334759026441, 0.004218669518052882, 0.006328004277079322, 0.008437339036105765]}
Sending to Aggregator_DER_Bus11 at time 18.5: ACE 0.0008444975261832346 100 MW.
=============================
request_time=19.0
saving ss to object.
pvd1_qpower = [0.0657302  0.13146041 0.1971906  0.26292079] at time 19.0
Received active power from Bus11 at time 19.0: 3499.561059511355 kw
Received reactive power from Bus11 at time 19.0: 1579.9787697296156 kvar
bus_name=11
  0%|                                                    | 0/100 [00:00<?, ?%/s]100%|######################################| 100.0/100 [00:00<00:00, 2226.54%/s]
Simulation completed in 0.0439 seconds.
current_time=19.0
ACE_raw = -0.0008473930853965939
ACE_raw_integral = -0.0064088639570709805
bus_pvd1_power {'11': [0.002031000322224908, 0.004062000644449816, 0.006093000966674725, 0.008124001288899632]}
Sending to Aggregator_DER_Bus11 at time 19.0: ACE 0.0007256257042467574 100 MW.
Sent voltage at time 19.0: (0.9945499999909282 pu , -0.1622799505890413 rad)to Bus 11
Sent DER_power at time 19.0: [0.002031000322224908, 0.004062000644449816, 0.006093000966674725, 0.008124001288899632] MW to Bus 11
=============================
request_time=19.5
saving ss to object.
pvd1_qpower = [0.06573011 0.13146022 0.19719031 0.26292041] at time 19.5
Received active power from Bus11 at time 19.5: 3497.7931234200723 kw
Received reactive power from Bus11 at time 19.5: 1570.6752132427312 kvar
bus_name=11
  0%|                                                    | 0/100 [00:00<?, ?%/s]100%|######################################| 100.0/100 [00:00<00:00, 4725.98%/s]
Simulation completed in 0.0211 seconds.
current_time=19.5
ACE_raw = -0.00022412996774683896
ACE_raw_integral = -0.0065209289409444
bus_pvd1_power {'11': [0.0020010344515776026, 0.004002068903155205, 0.006003103354732808, 0.00800413780631041]}
Sending to Aggregator_DER_Bus11 at time 19.5: ACE 0.000674505890869124 100 MW.
=============================
request_time=20.0
saving ss to object.
pvd1_qpower = [0.06572993 0.13145988 0.19718982 0.26291976] at time 20.0
Received active power from Bus11 at time 20.0: 3497.7931234200723 kw
Received reactive power from Bus11 at time 20.0: 1570.6752132427312 kvar
bus_name=11
  0%|                                                    | 0/100 [00:00<?, ?%/s]100%|######################################| 100.0/100 [00:00<00:00, 3507.32%/s]
Simulation completed in 0.0285 seconds.
current_time=20.0
ACE_raw = -0.0008284572368473356
ACE_raw_integral = -0.006935157559368068
bus_pvd1_power {'11': [0.002029448752614537, 0.004058897505229074, 0.006088346257843612, 0.008117795010458149]}
Sending to Aggregator_DER_Bus11 at time 20.0: ACE 0.0007763614796215404 100 MW.
Sent voltage at time 20.0: (0.994492408310097 pu , -0.16569057025613865 rad)to Bus 11
Sent DER_power at time 20.0: [0.002029448752614537, 0.004058897505229074, 0.006088346257843612, 0.008117795010458149] MW to Bus 11
=============================
request_time=20.5
saving ss to object.
pvd1_qpower = [0.06572984 0.13145969 0.19718953 0.26291938] at time 20.5
Received active power from Bus11 at time 20.5: 3499.5476090548173 kw
Received reactive power from Bus11 at time 20.5: 1579.00751224936 kvar
bus_name=11
Received PVD_AGC_response = ['Bus11', '6.745058908691241e-06', '1.3490117817382482e-05', '2.023517672607372e-05', '2.6980235634764965e-05'] from Aggregator_DER_Bus11 at time 20.5.
tmp1 =  0
tmp2 =  0
tmp3 =  4
PVD_AGC_response_np=[6.74505891e-06 1.34901178e-05 2.02351767e-05 2.69802356e-05]
  0%|                                                    | 0/100 [00:00<?, ?%/s]100%|######################################| 100.0/100 [00:00<00:00, 2955.42%/s]
Simulation completed in 0.0338 seconds.
current_time=20.5
ACE_raw = -0.0010434646946315901
ACE_raw_integral = -0.007456889906683863
bus_pvd1_power {'11': [0.0020574612464406045, 0.004114922492881209, 0.006172383739321815, 0.008229844985762418]}
Sending to Aggregator_DER_Bus11 at time 20.5: ACE 0.0008500354601315453 100 MW.
=============================
request_time=21.0
saving ss to object.
pvd1_qpower = [0.06572987 0.13145974 0.19718961 0.26291946] at time 21.0
Received active power from Bus11 at time 21.0: 3499.5476090548173 kw
Received reactive power from Bus11 at time 21.0: 1579.00751224936 kvar
bus_name=11
  0%|                                                    | 0/100 [00:00<?, ?%/s]100%|######################################| 100.0/100 [00:00<00:00, 2109.58%/s]
Simulation completed in 0.0474 seconds.
current_time=21.0
ACE_raw = -0.0024637776242577504
ACE_raw_integral = -0.008688778718812738
bus_pvd1_power {'11': [0.0021263736736866043, 0.004252747347373209, 0.006379121021059814, 0.008505494694746417]}
Sending to Aggregator_DER_Bus11 at time 21.0: ACE 0.001115255634307049 100 MW.
Sent voltage at time 21.0: (0.9943194978449335 pu , -0.17566963120300116 rad)to Bus 11
Sent DER_power at time 21.0: [0.0021263736736866043, 0.004252747347373209, 0.006379121021059814, 0.008505494694746417] MW to Bus 11
=============================
request_time=21.5
saving ss to object.
pvd1_qpower = [0.06572981 0.13145962 0.19718944 0.26291926] at time 21.5
Received active power from Bus11 at time 21.5: 3501.352756227142 kw
Received reactive power from Bus11 at time 21.5: 1588.6599297233379 kvar
bus_name=11
  0%|                                                    | 0/100 [00:00<?, ?%/s]100%|######################################| 100.0/100 [00:00<00:00, 2439.44%/s]
Simulation completed in 0.0409 seconds.
current_time=21.5
ACE_raw = -0.0031616630218981112
ACE_raw_integral = -0.010269610229761793
bus_pvd1_power {'11': [0.0021599120439741554, 0.004319824087948311, 0.006479736131922467, 0.008639648175896622]}
Sending to Aggregator_DER_Bus11 at time 21.5: ACE 0.0013431273251659904 100 MW.
=============================
request_time=22.0
saving ss to object.
pvd1_qpower = [0.06572993 0.13145986 0.19718979 0.26291972] at time 22.0
Received active power from Bus11 at time 22.0: 3501.352756227142 kw
Received reactive power from Bus11 at time 22.0: 1588.6599297233379 kvar
bus_name=11
  0%|                                                    | 0/100 [00:00<?, ?%/s]100%|######################################| 100.0/100 [00:00<00:00, 2695.93%/s]
Simulation completed in 0.0370 seconds.
current_time=22.0
ACE_raw = 0.0011451497281188927
ACE_raw_integral = -0.009697035365702347
bus_pvd1_power {'11': [0.0020067645735378195, 0.004013528967982026, 0.006020293444242362, 0.008027057925656481]}
Sending to Aggregator_DER_Bus11 at time 22.0: ACE 0.0008551885637583453 100 MW.
Sent voltage at time 22.0: (0.9945551003855353 pu , -0.1853402733786688 rad)to Bus 11
Sent DER_power at time 22.0: [0.0020067645735378195, 0.004013528967982026, 0.006020293444242362, 0.008027057925656481] MW to Bus 11
=============================
request_time=22.5
saving ss to object.
pvd1_qpower = [0.06573062 0.13146125 0.19719187 0.26292249] at time 22.5
Received active power from Bus11 at time 22.5: 3501.5363047381807 kw
Received reactive power from Bus11 at time 22.5: 1589.1207079022042 kvar
bus_name=11
  0%|                                                    | 0/100 [00:00<?, ?%/s]100%|######################################| 100.0/100 [00:00<00:00, 4552.54%/s]
Simulation completed in 0.0219 seconds.
current_time=22.5
ACE_raw = 0.003822425339067136
ACE_raw_integral = -0.007785822696168778
bus_pvd1_power {'11': [0.002006753926397853, 0.004013507852795706, 0.0060202617786731145, 0.008027015519424339]}
Sending to Aggregator_DER_Bus11 at time 22.5: ACE 0.00039633973571016423 100 MW.
=============================
request_time=23.0
saving ss to object.
pvd1_qpower = [0.06573028 0.13146056 0.19719083 0.26292111] at time 23.0
Received active power from Bus11 at time 23.0: 3501.5363047381807 kw
Received reactive power from Bus11 at time 23.0: 1589.1207079022042 kvar
bus_name=11
  0%|                                                    | 0/100 [00:00<?, ?%/s]100%|######################################| 100.0/100 [00:00<00:00, 3576.56%/s]
Simulation completed in 0.0279 seconds.
current_time=23.0
ACE_raw = 0.0004924373007712129
ACE_raw_integral = -0.007539604045783172
bus_pvd1_power {'11': [0.0020067250438344703, 0.004013450087668941, 0.006020175350904451, 0.008026900467872597]}
Sending to Aggregator_DER_Bus11 at time 23.0: ACE 0.0007047166745011959 100 MW.
Sent voltage at time 23.0: (0.9944049411433032 pu , -0.17121999561418821 rad)to Bus 11
Sent DER_power at time 23.0: [0.0020067250438344703, 0.004013450087668941, 0.006020175350904451, 0.008026900467872597] MW to Bus 11
=============================
request_time=23.5
saving ss to object.
pvd1_qpower = [0.06572934 0.13145867 0.19718801 0.26291735] at time 23.5
Received active power from Bus11 at time 23.5: 3500.253754141774 kw
Received reactive power from Bus11 at time 23.5: 1582.6924122103144 kvar
bus_name=11
  0%|                                                    | 0/100 [00:00<?, ?%/s]100%|######################################| 100.0/100 [00:00<00:00, 2360.54%/s]
Simulation completed in 0.0423 seconds.
current_time=23.5
ACE_raw = -0.001835071203882968
ACE_raw_integral = -0.008457139647724656
bus_pvd1_power {'11': [0.0020953886469118324, 0.004190777293823665, 0.006286165940735497, 0.00838155458764733]}
Sending to Aggregator_DER_Bus11 at time 23.5: ACE 0.0010292210851607624 100 MW.
=============================
request_time=24.0
saving ss to object.
pvd1_qpower = [0.06572972 0.13145946 0.19718919 0.26291892] at time 24.0
Received active power from Bus11 at time 24.0: 3500.253754141774 kw
Received reactive power from Bus11 at time 24.0: 1582.6924122103144 kvar
bus_name=11
  0%|                                                    | 0/100 [00:00<?, ?%/s]100%|######################################| 100.0/100 [00:00<00:00, 2885.58%/s]
Simulation completed in 0.0346 seconds.
current_time=24.0
ACE_raw = 0.0018497958850128378
ACE_raw_integral = -0.0075322417052182365
bus_pvd1_power {'11': [0.002006761036688609, 0.004013521967959237, 0.006020282865944693, 0.00802704382125959]}
Sending to Aggregator_DER_Bus11 at time 24.0: ACE 0.0005682445820205399 100 MW.
Sent voltage at time 24.0: (0.9945023733709204 pu , -0.17181923765907767 rad)to Bus 11
Sent DER_power at time 24.0: [0.002006761036688609, 0.004013521967959237, 0.006020282865944693, 0.00802704382125959] MW to Bus 11
=============================
request_time=24.5
saving ss to object.
pvd1_qpower = [0.06573051 0.13146102 0.19719153 0.26292204] at time 24.5
Received active power from Bus11 at time 24.5: 3501.7413655748096 kw
Received reactive power from Bus11 at time 24.5: 1590.4845543675717 kvar
bus_name=11
Received PVD_AGC_response = ['Bus11', '1.0292210851607627e-05', '2.0584421703215253e-05', '3.087663255482287e-05', '4.116884340643051e-05'] from Aggregator_DER_Bus11 at time 24.5.
tmp1 =  0
tmp2 =  0
tmp3 =  4
PVD_AGC_response_np=[1.02922109e-05 2.05844217e-05 3.08766326e-05 4.11688434e-05]
  0%|                                                    | 0/100 [00:00<?, ?%/s]100%|######################################| 100.0/100 [00:00<00:00, 3670.20%/s]
Simulation completed in 0.0272 seconds.
current_time=24.5
ACE_raw = 0.004355597719690695
ACE_raw_integral = -0.005354442845372889
bus_pvd1_power {'11': [0.0020103010582174317, 0.0040206021163877535, 0.006030902974993058, 0.00804120396665741]}
Sending to Aggregator_DER_Bus11 at time 24.5: ACE 9.988451256821943e-05 100 MW.
=============================
request_time=25.0
saving ss to object.
pvd1_qpower = [0.06573028 0.13146055 0.19719083 0.2629211 ] at time 25.0
Received active power from Bus11 at time 25.0: 3501.7413655748096 kw
Received reactive power from Bus11 at time 25.0: 1590.4845543675717 kvar
bus_name=11
  0%|                                                    | 0/100 [00:00<?, ?%/s]100%|######################################| 100.0/100 [00:00<00:00, 3051.65%/s]
Simulation completed in 0.0327 seconds.
current_time=25.0
ACE_raw = 0.004132357793131154
ACE_raw_integral = -0.003288263948807312
bus_pvd1_power {'11': [0.002010287094146771, 0.004020574188293542, 0.006030861282440313, 0.008041148376587084]}
Sending to Aggregator_DER_Bus11 at time 25.0: ACE -8.440938443238423e-05 100 MW.
Sent voltage at time 25.0: (0.9946289463105329 pu , -0.14658226662885135 rad)to Bus 11
Sent DER_power at time 25.0: [0.002010287094146771, 0.004020574188293542, 0.006030861282440313, 0.008041148376587084] MW to Bus 11
=============================
request_time=25.5
saving ss to object.
pvd1_qpower = [0.06572982 0.13145965 0.19718947 0.26291929] at time 25.5
Received active power from Bus11 at time 25.5: 3501.8216266737963 kw
Received reactive power from Bus11 at time 25.5: 1590.8980190975963 kvar
bus_name=11
  0%|                                                    | 0/100 [00:00<?, ?%/s]100%|######################################| 100.0/100 [00:00<00:00, 5054.11%/s]
Simulation completed in 0.0197 seconds.
current_time=25.5
ACE_raw = 0.003534784233524618
ACE_raw_integral = -0.0015208718320450028
bus_pvd1_power {'11': [0.0020102849267423797, 0.004020569853484759, 0.0060308547802271385, 0.008041139914155627]}
Sending to Aggregator_DER_Bus11 at time 25.5: ACE -0.00020139124014796153 100 MW.
=============================
request_time=26.0
saving ss to object.
pvd1_qpower = [0.06572975 0.13145951 0.19718926 0.26291901] at time 26.0
Received active power from Bus11 at time 26.0: 3501.8216266737963 kw
Received reactive power from Bus11 at time 26.0: 1590.8980190975963 kvar
bus_name=11
  0%|                                                    | 0/100 [00:00<?, ?%/s]100%|######################################| 100.0/100 [00:00<00:00, 2642.28%/s]
Simulation completed in 0.0378 seconds.
current_time=26.0
ACE_raw = -0.00023438410863545225
ACE_raw_integral = -0.001638063886362729
bus_pvd1_power {'11': [0.002024514347865712, 0.004049028696370432, 0.006073543044561578, 0.008098057392748775]}
Sending to Aggregator_DER_Bus11 at time 26.0: ACE 0.00018724479949981814 100 MW.
Sent voltage at time 26.0: (0.9941640397615745 pu , -0.13181236434383406 rad)to Bus 11
Sent DER_power at time 26.0: [0.002024514347865712, 0.004049028696370432, 0.006073543044561578, 0.008098057392748775] MW to Bus 11
=============================
request_time=26.5
saving ss to object.
pvd1_qpower = [0.06572955 0.13145912 0.19718868 0.26291825] at time 26.5
Received active power from Bus11 at time 26.5: 3501.9077646581563 kw
Received reactive power from Bus11 at time 26.5: 1590.8274705619472 kvar
bus_name=11
  0%|                                                    | 0/100 [00:00<?, ?%/s]100%|######################################| 100.0/100 [00:00<00:00, 2372.59%/s]
Simulation completed in 0.0421 seconds.
current_time=26.5
ACE_raw = -0.002294755166845074
ACE_raw_integral = -0.002785441469785266
bus_pvd1_power {'11': [0.002121320423433059, 0.004242640846866118, 0.006363961270299177, 0.008485281693732236]}
Sending to Aggregator_DER_Bus11 at time 26.5: ACE 0.000508019663663034 100 MW.
=============================
request_time=27.0
saving ss to object.
pvd1_qpower = [0.06572986 0.13145973 0.1971896  0.26291947] at time 27.0
Received active power from Bus11 at time 27.0: 3501.9077646581563 kw
Received reactive power from Bus11 at time 27.0: 1590.8274705619472 kvar
bus_name=11
  0%|                                                    | 0/100 [00:00<?, ?%/s]100%|######################################| 100.0/100 [00:00<00:00, 2692.19%/s]
Simulation completed in 0.0371 seconds.
current_time=27.0
ACE_raw = 0.001488136187771107
ACE_raw_integral = -0.0020413733758997124
bus_pvd1_power {'11': [0.002010313065637494, 0.0040206258350204286, 0.0060309387525262406, 0.008041251670034987]}
Sending to Aggregator_DER_Bus11 at time 27.0: ACE 5.5323718812860524e-05 100 MW.
Sent voltage at time 27.0: (0.9943579370996033 pu , -0.1356357767773878 rad)to Bus 11
Sent DER_power at time 27.0: [0.002010313065637494, 0.0040206258350204286, 0.0060309387525262406, 0.008041251670034987] MW to Bus 11
=============================
request_time=27.5
saving ss to object.
pvd1_qpower = [0.06573067 0.13146133 0.197192   0.26292266] at time 27.5
Received active power from Bus11 at time 27.5: 3502.1420979829545 kw
Received reactive power from Bus11 at time 27.5: 1590.5941929869978 kvar
bus_name=11
  0%|                                                    | 0/100 [00:00<?, ?%/s]100%|######################################| 100.0/100 [00:00<00:00, 5629.11%/s]
Simulation completed in 0.0177 seconds.
current_time=27.5
ACE_raw = 0.004156005450787788
ACE_raw_integral = 3.662934949418169e-05
bus_pvd1_power {'11': [0.0020103053896249486, 0.0040206105891763344, 0.0060309158837645, 0.008041221178352669]}
Sending to Aggregator_DER_Bus11 at time 27.5: ACE -0.000419263480028197 100 MW.
=============================
request_time=28.0
saving ss to object.
pvd1_qpower = [0.06573042 0.13146083 0.19719125 0.26292166] at time 28.0
Received active power from Bus11 at time 28.0: 3502.1420979829545 kw
Received reactive power from Bus11 at time 28.0: 1590.5941929869978 kvar
bus_name=11
  0%|                                                    | 0/100 [00:00<?, ?%/s]100%|######################################| 100.0/100 [00:00<00:00, 4924.45%/s]
Simulation completed in 0.0203 seconds.
current_time=28.0
ACE_raw = 0.0027324742551969694
ACE_raw_integral = 0.0014028664770926664
bus_pvd1_power {'11': [0.0020102843479476353, 0.004020568695895271, 0.006030853043842905, 0.00804113757542659]}
Sending to Aggregator_DER_Bus11 at time 28.0: ACE -0.0004135340732289636 100 MW.
Sent voltage at time 28.0: (0.9944647349203137 pu , -0.11487320076541216 rad)to Bus 11
Sent DER_power at time 28.0: [0.0020102843479476353, 0.004020568695895271, 0.006030853043842905, 0.00804113757542659] MW to Bus 11
=============================
request_time=28.5
saving ss to object.
pvd1_qpower = [0.06572973 0.13145947 0.1971892  0.26291893] at time 28.5
Received active power from Bus11 at time 28.5: 3501.2899967318394 kw
Received reactive power from Bus11 at time 28.5: 1589.76997829273 kvar
bus_name=11
Received PVD_AGC_response = ['Bus11', '-4.192634800281971e-06', '-8.385269600563942e-06', '-1.2577904400845909e-05', '-1.6770539201127883e-05'] from Aggregator_DER_Bus11 at time 28.5.
tmp1 =  0
tmp2 =  0
tmp3 =  4
PVD_AGC_response_np=[-4.19263480e-06 -8.38526960e-06 -1.25779044e-05 -1.67705392e-05]
  0%|                                                    | 0/100 [00:00<?, ?%/s]100%|######################################| 100.0/100 [00:00<00:00, 3203.45%/s]
Simulation completed in 0.0312 seconds.
current_time=28.5
ACE_raw = 0.0011951259288282105
ACE_raw_integral = 0.002000429441506772
bus_pvd1_power {'11': [0.0019957989408281598, 0.0039915978816563195, 0.0059873968224844806, 0.007983195763312639]}
Sending to Aggregator_DER_Bus11 at time 28.5: ACE -0.00031955553703349825 100 MW.
=============================
request_time=29.0
saving ss to object.
pvd1_qpower = [0.06572971 0.13145942 0.19718913 0.26291884] at time 29.0
Received active power from Bus11 at time 29.0: 3501.2899967318394 kw
Received reactive power from Bus11 at time 29.0: 1589.76997829273 kvar
bus_name=11
  0%|                                                    | 0/100 [00:00<?, ?%/s]100%|######################################| 100.0/100 [00:00<00:00, 2964.99%/s]
Simulation completed in 0.0337 seconds.
current_time=29.0
ACE_raw = 0.001741640995090072
ACE_raw_integral = 0.002871249939051808
bus_pvd1_power {'11': [0.001995809330912323, 0.003991618661824646, 0.005987427992736968, 0.007983237323649292]}
Sending to Aggregator_DER_Bus11 at time 29.0: ACE -0.000461289093414188 100 MW.
Sent voltage at time 29.0: (0.9943748245431792 pu , -0.10391164829585975 rad)to Bus 11
Sent DER_power at time 29.0: [0.001995809330912323, 0.003991618661824646, 0.005987427992736968, 0.007983237323649292] MW to Bus 11
=============================
request_time=29.5
saving ss to object.
pvd1_qpower = [0.06573005 0.13146011 0.19719016 0.26292021] at time 29.5
Received active power from Bus11 at time 29.5: 3501.6989302079614 kw
Received reactive power from Bus11 at time 29.5: 1590.698615945059 kvar
bus_name=11
  0%|                                                    | 0/100 [00:00<?, ?%/s]100%|######################################| 100.0/100 [00:00<00:00, 5793.24%/s]
Simulation completed in 0.0329 seconds.
current_time=29.5
ACE_raw = 0.002202437430634017
ACE_raw_integral = 0.003972468654368816
bus_pvd1_power {'11': [0.0019958092135005322, 0.0039916184270010644, 0.005987427640501596, 0.007983236854002129]}
Sending to Aggregator_DER_Bus11 at time 29.5: ACE -0.0006174906085002833 100 MW.
=============================
request_time=30.0
saving ss to object.
pvd1_qpower = [0.06573005 0.1314601  0.19719015 0.2629202 ] at time 30.0
Received active power from Bus11 at time 30.0: 3501.6989302079614 kw
Received reactive power from Bus11 at time 30.0: 1590.698615945059 kvar
bus_name=11
  0%|                                                    | 0/100 [00:00<?, ?%/s]100%|######################################| 100.0/100 [00:00<00:00, 5583.32%/s]
Simulation completed in 0.0179 seconds.
current_time=30.0
ACE_raw = 0.0011338936261896058
ACE_raw_integral = 0.004539415467463619
bus_pvd1_power {'11': [0.0019958026796486525, 0.003991605359297305, 0.005987408038945957, 0.00798321071859461]}
Sending to Aggregator_DER_Bus11 at time 30.0: ACE -0.0005673309093653225 100 MW.
Sent voltage at time 30.0: (0.9943115338521674 pu , -0.09264010062752502 rad)to Bus 11
Sent DER_power at time 30.0: [0.0019958026796486525, 0.003991605359297305, 0.005987408038945957, 0.00798321071859461] MW to Bus 11
=============================
request_time=30.5
saving ss to object.
pvd1_qpower = [0.06572983 0.13145967 0.1971895  0.26291934] at time 30.5
Received active power from Bus11 at time 30.5: 3501.942661973957 kw
Received reactive power from Bus11 at time 30.5: 1590.7190448981435 kvar
bus_name=11
  0%|                                                    | 0/100 [00:00<?, ?%/s]100%|######################################| 100.0/100 [00:00<00:00, 3750.31%/s]
Simulation completed in 0.0327 seconds.
current_time=30.5
ACE_raw = 0.00038996087268716994
ACE_raw_integral = 0.004734395903807204
bus_pvd1_power {'11': [0.001995804927809184, 0.003991609855618368, 0.005987414783427552, 0.007983219711236736]}
Sending to Aggregator_DER_Bus11 at time 30.5: ACE -0.0005124356776494374 100 MW.
=============================
request_time=31.0
saving ss to object.
pvd1_qpower = [0.06572991 0.13145982 0.19718972 0.26291963] at time 31.0
Received active power from Bus11 at time 31.0: 3501.942661973957 kw
Received reactive power from Bus11 at time 31.0: 1590.7190448981435 kvar
bus_name=11
  0%|                                                    | 0/100 [00:00<?, ?%/s]100%|######################################| 100.0/100 [00:00<00:00, 2689.64%/s]
Simulation completed in 0.0371 seconds.
current_time=31.0
ACE_raw = 0.005378740103250449
ACE_raw_integral = 0.007423765955432428
bus_pvd1_power {'11': [0.0019958300716143283, 0.0039916601432286565, 0.0059874902148429835, 0.00798332028645731]}
Sending to Aggregator_DER_Bus11 at time 31.0: ACE -0.0012802506058682878 100 MW.
...